This is a test.

Test to add a line.

New line.

abc